1

   Abaqus 2024                                  Date 28-Aug-2025   Time 14:27:19
   For use by RWTH AACHEN UNIVERSITY under license from Dassault Systemes or its subsidiary.

 PECVD barrier permeation analysis                                               
                                                                                 
 STEP    1     INCREMENT     1     STEP TIME    0.00    


                        S T E P       1     T R A N S I E N T   M A S S   D I F F U S I O N


                                                                                          

     AUTOMATIC TIME CONTROL WITH -
          A SUGGESTED INITIAL TIME INCREMENT OF                 1.00    
          AND A TOTAL TIME PERIOD OF                           8.640E+04
          THE MINIMUM TIME INCREMENT ALLOWED IS                1.000E-06
          THE MAXIMUM TIME INCREMENT ALLOWED IS                3.600E+03

     THE SIZE OF THE TIME INCREMENT IS CONTROLLED BY -
          THE NORMALIZED CONCENTRATION CHANGE PER INCREMENT NOT EXCEEDING   1.000E+03

 CONVERGENCE TOLERANCE PARAMETERS FOR MASS FLUX
     CRITERION FOR RESIDUAL MASS FLUX FOR A NONLINEAR PROBLEM          5.000E-03
     CRITERION FOR CONCENT. CORRECTION IN A NONLINEAR PROBLEM          1.000E-02
     INITIAL VALUE OF TIME AVERAGE MASS FLUX                           1.000E-02
     AVERAGE MASS FLUX IS TIME AVERAGE MASS FLUX
     ALTERNATE CRIT. FOR RESIDUAL MASS FLUX FOR A NONLINEAR PROBLEM    2.000E-02
     CRITERION FOR ZERO MASS FLUX RELATIVE TO TIME AVRG. MASS FLUX     1.000E-05
     CRITERION FOR RESIDUAL MASS FLUX WHEN THERE IS ZERO FLUX          1.000E-05
     CRITERION FOR CONCENT. CORRECTION WHEN THERE IS ZERO FLUX         1.000E-03
     CRITERION FOR RESIDUAL MASS FLUX FOR A LINEAR INCREMENT           1.000E-08
     FIELD CONVERSION RATIO                                             1.00    
     CRITERION FOR ZERO MASS FLUX REL. TO TIME AVRG. MAX. MASS FLUX    1.000E-05

     VOLUMETRIC STRAIN COMPATIBILITY TOLERANCE FOR HYBRID SOLIDS       1.000E-05
     AXIAL STRAIN COMPATIBILITY TOLERANCE FOR HYBRID BEAMS             1.000E-05
     TRANS. SHEAR STRAIN COMPATIBILITY TOLERANCE FOR HYBRID BEAMS      1.000E-05
     SOFT CONTACT CONSTRAINT COMPATIBILITY TOLERANCE FOR P>P0          5.000E-03
     SOFT CONTACT CONSTRAINT COMPATIBILITY TOLERANCE FOR P=0.0         0.100    
     CONTACT FORCE ERROR TOLERANCE FOR CONVERT SDI=YES                 1.00    
     DISPLACEMENT COMPATIBILITY TOLERANCE FOR DCOUP ELEMENTS           1.000E-05
     ROTATION COMPATIBILITY TOLERANCE FOR DCOUP ELEMENTS               1.000E-05

 EQUILIBRIUM WILL BE CHECKED FOR SEVERE DISCONTINUITY ITERATIONS

 TIME INCREMENTATION CONTROL PARAMETERS:
     FIRST EQUILIBRIUM ITERATION FOR CONSECUTIVE DIVERGENCE CHECK              4
     EQUILIBRIUM ITERATION AT WHICH LOG. CONVERGENCE RATE CHECK BEGINS         8
     EQUILIBRIUM ITERATION AFTER WHICH ALTERNATE RESIDUAL IS USED              9
     MAXIMUM EQUILIBRIUM ITERATIONS ALLOWED                                   16
     EQUILIBRIUM ITERATION COUNT FOR CUT-BACK IN NEXT INCREMENT               10
     MAXIMUM EQUILIB. ITERS IN TWO INCREMENTS FOR TIME INCREMENT INCREASE      4
     MAXIMUM ITERATIONS FOR SEVERE DISCONTINUITIES                            50
     MAXIMUM ATTEMPTS ALLOWED IN AN INCREMENT                                  5
     MAXIMUM DISCON. ITERS IN TWO INCREMENTS FOR TIME INCREMENT INCREASE      50
     MAXIMUM CONTACT AUGMENTATIONS FOR *SURFACE BEHAVIOR,AUGMENTED LAGRANGE   50
     CONSECUTIVE INCS MEETING TIME INTEG. TOL. FOR TIME INC. INCREASE          3
     CUT-BACK FACTOR AFTER DIVERGENCE                                 0.2500    
     CUT-BACK FACTOR FOR TOO SLOW CONVERGENCE                         0.5000    
     CUT-BACK FACTOR AFTER TOO MANY EQUILIBRIUM ITERATIONS            0.7500    
     CUT-BACK FACTOR AFTER TOO MANY SEVERE DISCONTINUITY ITERATIONS   0.2500    
     CUT-BACK FACTOR AFTER PROBLEMS IN ELEMENT ASSEMBLY               0.2500    
     INCREASE FACTOR AFTER TWO INCREMENTS THAT CONVERGE QUICKLY        1.500    
     MAX. TIME INCREMENT INCREASE FACTOR ALLOWED                       1.500    
     MAX. TIME INCREMENT INCREASE FACTOR ALLOWED (DYNAMICS)            1.250    
     MAX. TIME INCREMENT INCREASE FACTOR ALLOWED (DIFFUSION)           2.000    
     MINIMUM TIME INCREMENT RATIO FOR EXTRAPOLATION TO OCCUR          0.1000    
     CUT-BACK FACTOR WHEN TIME INTEGRATION ACCURACY TOL. EXCEEDED     0.8500    
     MAX. RATIO OF TIME INTEG. MEASURE TO TOL. FOR TIME INC. INCREASE 0.7500    
     INCREASE FACTOR FOR TIME INCREMENT WHEN POSSIBLE                 0.8000    
     MIN. TIME INC. INCREASE FACTOR IN LINEAR TRANSIENT PROBLEMS      0.9500    
     MAX. RATIO OF TIME INCREMENT TO STABILITY LIMIT                   1.000    
     FRACTION OF STABILITY LIMIT FOR NEW TIME INCREMENT               0.9500    
     TIME INCREMENT INCREASE FACTOR BEFORE A TIME POINT                1.000    
     GLOBAL STABILIZATION CONTROL IS NOT USED

          PRINT OF INCREMENT NUMBER, TIME, ETC., EVERY    1  INCREMENTS

     THE MAXIMUM NUMBER OF INCREMENTS IN THIS STEP IS                     100

          UNSYMMETRIC MATRIX STORAGE AND SOLUTION WILL BE USED

     LINEAR EXTRAPOLATION WILL BE USED

     CHARACTERISTIC ELEMENT LENGTH      50.0    

     DETAILS REGARDING ACTUAL SOLUTION WAVEFRONT REQUESTED

     DETAILED OUTPUT OF DIAGNOSTICS TO DATABASE REQUESTED

     PRINT OF INCREMENT NUMBER, TIME, ETC., TO THE MESSAGE FILE EVERY     1  INCREMENTS

     COLLECTING MODEL CONSTRAINT INFORMATION FOR OVERCONSTRAINT CHECKS

     COLLECTING STEP CONSTRAINT INFORMATION FOR OVERCONSTRAINT CHECKS


  INCREMENT     1 STARTS. ATTEMPT NUMBER  1, TIME INCREMENT   1.00    
 
	UNSYMMETRIC NEW DIRECT SPARSE SOLVER RUNNING ON
 	1 HOST x 1 MPI RANK PER HOST x 1 THREAD PER RANK
        NUMBER OF EQUATIONS:  3216
        NUMBER OF RHS:        1
        NUMBER OF FLOPS:      3.844e+06
        SOLVER ELAPSED TIME:  21ms

               CONVERGENCE CHECKS FOR EQUILIBRIUM ITERATION     1


 AVERAGE MASS FLUX                   0.00       TIME AVG. MASS FLUX   1.000E-02
 ALL MASS FLUX RESIDUALS ARE ZERO
 ALL CONCENT. INCREMENTS ARE ZERO
 ALL CORRECTION TO CONCENT. ARE ZERO
          THERE IS ZERO MASS FLUX EVERYWHERE

 MAXIMUM NON-PRESCRIBED INCREMENT IN NORMALIZED CONCENTRATION IS    0.00    

 ITERATION SUMMARY FOR THE INCREMENT:   1 TOTAL ITERATIONS, OF WHICH
   0 ARE SEVERE DISCONTINUITY ITERATIONS AND  1 ARE EQUILIBRIUM ITERATIONS.

 TIME INCREMENT COMPLETED   1.00    ,  FRACTION OF STEP COMPLETED  1.157E-05
 STEP TIME COMPLETED        1.00    ,  TOTAL TIME COMPLETED         1.00    


  INCREMENT     2 STARTS. ATTEMPT NUMBER  1, TIME INCREMENT   1.00    
 
	UNSYMMETRIC NEW DIRECT SPARSE SOLVER RUNNING ON
 	1 HOST x 1 MPI RANK PER HOST x 1 THREAD PER RANK
        NUMBER OF EQUATIONS:  3216
        NUMBER OF RHS:        1
        NUMBER OF FLOPS:      3.844e+06
        SOLVER ELAPSED TIME:  16ms

               CONVERGENCE CHECKS FOR EQUILIBRIUM ITERATION     1


 AVERAGE MASS FLUX                   0.00       TIME AVG. MASS FLUX   1.000E-02
 ALL MASS FLUX RESIDUALS ARE ZERO
 ALL CONCENT. INCREMENTS ARE ZERO
 ALL CORRECTION TO CONCENT. ARE ZERO
          THERE IS ZERO MASS FLUX EVERYWHERE

 MAXIMUM NON-PRESCRIBED INCREMENT IN NORMALIZED CONCENTRATION IS    0.00    

 ITERATION SUMMARY FOR THE INCREMENT:   1 TOTAL ITERATIONS, OF WHICH
   0 ARE SEVERE DISCONTINUITY ITERATIONS AND  1 ARE EQUILIBRIUM ITERATIONS.

 TIME INCREMENT COMPLETED   1.00    ,  FRACTION OF STEP COMPLETED  2.315E-05
 STEP TIME COMPLETED        2.00    ,  TOTAL TIME COMPLETED         2.00    


  INCREMENT     3 STARTS. ATTEMPT NUMBER  1, TIME INCREMENT   1.00    
 
	UNSYMMETRIC NEW DIRECT SPARSE SOLVER RUNNING ON
 	1 HOST x 1 MPI RANK PER HOST x 1 THREAD PER RANK
        NUMBER OF EQUATIONS:  3216
        NUMBER OF RHS:        1
        NUMBER OF FLOPS:      3.844e+06
        SOLVER ELAPSED TIME:  16ms

               CONVERGENCE CHECKS FOR EQUILIBRIUM ITERATION     1


 AVERAGE MASS FLUX                   0.00       TIME AVG. MASS FLUX   1.000E-02
 ALL MASS FLUX RESIDUALS ARE ZERO
 ALL CONCENT. INCREMENTS ARE ZERO
 ALL CORRECTION TO CONCENT. ARE ZERO
          THERE IS ZERO MASS FLUX EVERYWHERE

 MAXIMUM NON-PRESCRIBED INCREMENT IN NORMALIZED CONCENTRATION IS    0.00    
          TIME INCREMENT MAY NOW INCREASE TO     2.00    

 ITERATION SUMMARY FOR THE INCREMENT:   1 TOTAL ITERATIONS, OF WHICH
   0 ARE SEVERE DISCONTINUITY ITERATIONS AND  1 ARE EQUILIBRIUM ITERATIONS.

 TIME INCREMENT COMPLETED   1.00    ,  FRACTION OF STEP COMPLETED  3.472E-05
 STEP TIME COMPLETED        3.00    ,  TOTAL TIME COMPLETED         3.00    


  INCREMENT     4 STARTS. ATTEMPT NUMBER  1, TIME INCREMENT   2.00    
 
	UNSYMMETRIC NEW DIRECT SPARSE SOLVER RUNNING ON
 	1 HOST x 1 MPI RANK PER HOST x 1 THREAD PER RANK
        NUMBER OF EQUATIONS:  3216
        NUMBER OF RHS:        1
        NUMBER OF FLOPS:      3.844e+06
        SOLVER ELAPSED TIME:  11ms

               CONVERGENCE CHECKS FOR EQUILIBRIUM ITERATION     1


 AVERAGE MASS FLUX                   0.00       TIME AVG. MASS FLUX   1.000E-02
 ALL MASS FLUX RESIDUALS ARE ZERO
 ALL CONCENT. INCREMENTS ARE ZERO
 ALL CORRECTION TO CONCENT. ARE ZERO
          THERE IS ZERO MASS FLUX EVERYWHERE

 MAXIMUM NON-PRESCRIBED INCREMENT IN NORMALIZED CONCENTRATION IS    0.00    
          TIME INCREMENT MAY NOW INCREASE TO     4.00    

 ITERATION SUMMARY FOR THE INCREMENT:   1 TOTAL ITERATIONS, OF WHICH
   0 ARE SEVERE DISCONTINUITY ITERATIONS AND  1 ARE EQUILIBRIUM ITERATIONS.

 TIME INCREMENT COMPLETED   2.00    ,  FRACTION OF STEP COMPLETED  5.787E-05
 STEP TIME COMPLETED        5.00    ,  TOTAL TIME COMPLETED         5.00    


  INCREMENT     5 STARTS. ATTEMPT NUMBER  1, TIME INCREMENT   4.00    
 
	UNSYMMETRIC NEW DIRECT SPARSE SOLVER RUNNING ON
 	1 HOST x 1 MPI RANK PER HOST x 1 THREAD PER RANK
        NUMBER OF EQUATIONS:  3216
        NUMBER OF RHS:        1
        NUMBER OF FLOPS:      3.844e+06
        SOLVER ELAPSED TIME:  12ms

               CONVERGENCE CHECKS FOR EQUILIBRIUM ITERATION     1


 AVERAGE MASS FLUX                   0.00       TIME AVG. MASS FLUX   1.000E-02
 ALL MASS FLUX RESIDUALS ARE ZERO
 ALL CONCENT. INCREMENTS ARE ZERO
 ALL CORRECTION TO CONCENT. ARE ZERO
          THERE IS ZERO MASS FLUX EVERYWHERE

 MAXIMUM NON-PRESCRIBED INCREMENT IN NORMALIZED CONCENTRATION IS    0.00    
          TIME INCREMENT MAY NOW INCREASE TO     8.00    

 ITERATION SUMMARY FOR THE INCREMENT:   1 TOTAL ITERATIONS, OF WHICH
   0 ARE SEVERE DISCONTINUITY ITERATIONS AND  1 ARE EQUILIBRIUM ITERATIONS.

 TIME INCREMENT COMPLETED   4.00    ,  FRACTION OF STEP COMPLETED  1.042E-04
 STEP TIME COMPLETED        9.00    ,  TOTAL TIME COMPLETED         9.00    


  INCREMENT     6 STARTS. ATTEMPT NUMBER  1, TIME INCREMENT   8.00    
 
	UNSYMMETRIC NEW DIRECT SPARSE SOLVER RUNNING ON
 	1 HOST x 1 MPI RANK PER HOST x 1 THREAD PER RANK
        NUMBER OF EQUATIONS:  3216
        NUMBER OF RHS:        1
        NUMBER OF FLOPS:      3.844e+06
        SOLVER ELAPSED TIME:  16ms

               CONVERGENCE CHECKS FOR EQUILIBRIUM ITERATION     1


 AVERAGE MASS FLUX                   0.00       TIME AVG. MASS FLUX   1.000E-02
 ALL MASS FLUX RESIDUALS ARE ZERO
 ALL CONCENT. INCREMENTS ARE ZERO
 ALL CORRECTION TO CONCENT. ARE ZERO
          THERE IS ZERO MASS FLUX EVERYWHERE

 MAXIMUM NON-PRESCRIBED INCREMENT IN NORMALIZED CONCENTRATION IS    0.00    
          TIME INCREMENT MAY NOW INCREASE TO     16.0    

 ITERATION SUMMARY FOR THE INCREMENT:   1 TOTAL ITERATIONS, OF WHICH
   0 ARE SEVERE DISCONTINUITY ITERATIONS AND  1 ARE EQUILIBRIUM ITERATIONS.

 TIME INCREMENT COMPLETED   8.00    ,  FRACTION OF STEP COMPLETED  1.968E-04
 STEP TIME COMPLETED        17.0    ,  TOTAL TIME COMPLETED         17.0    


  INCREMENT     7 STARTS. ATTEMPT NUMBER  1, TIME INCREMENT   16.0    
 
	UNSYMMETRIC NEW DIRECT SPARSE SOLVER RUNNING ON
 	1 HOST x 1 MPI RANK PER HOST x 1 THREAD PER RANK
        NUMBER OF EQUATIONS:  3216
        NUMBER OF RHS:        1
        NUMBER OF FLOPS:      3.844e+06
        SOLVER ELAPSED TIME:  16ms

               CONVERGENCE CHECKS FOR EQUILIBRIUM ITERATION     1


 AVERAGE MASS FLUX                   0.00       TIME AVG. MASS FLUX   1.000E-02
 ALL MASS FLUX RESIDUALS ARE ZERO
 ALL CONCENT. INCREMENTS ARE ZERO
 ALL CORRECTION TO CONCENT. ARE ZERO
          THERE IS ZERO MASS FLUX EVERYWHERE

 MAXIMUM NON-PRESCRIBED INCREMENT IN NORMALIZED CONCENTRATION IS    0.00    
          TIME INCREMENT MAY NOW INCREASE TO     32.0    

 ITERATION SUMMARY FOR THE INCREMENT:   1 TOTAL ITERATIONS, OF WHICH
   0 ARE SEVERE DISCONTINUITY ITERATIONS AND  1 ARE EQUILIBRIUM ITERATIONS.

 TIME INCREMENT COMPLETED   16.0    ,  FRACTION OF STEP COMPLETED  3.819E-04
 STEP TIME COMPLETED        33.0    ,  TOTAL TIME COMPLETED         33.0    


  INCREMENT     8 STARTS. ATTEMPT NUMBER  1, TIME INCREMENT   32.0    
 
	UNSYMMETRIC NEW DIRECT SPARSE SOLVER RUNNING ON
 	1 HOST x 1 MPI RANK PER HOST x 1 THREAD PER RANK
        NUMBER OF EQUATIONS:  3216
        NUMBER OF RHS:        1
        NUMBER OF FLOPS:      3.844e+06
        SOLVER ELAPSED TIME:  16ms

               CONVERGENCE CHECKS FOR EQUILIBRIUM ITERATION     1


 AVERAGE MASS FLUX                   0.00       TIME AVG. MASS FLUX   1.000E-02
 ALL MASS FLUX RESIDUALS ARE ZERO
 ALL CONCENT. INCREMENTS ARE ZERO
 ALL CORRECTION TO CONCENT. ARE ZERO
          THERE IS ZERO MASS FLUX EVERYWHERE

 MAXIMUM NON-PRESCRIBED INCREMENT IN NORMALIZED CONCENTRATION IS    0.00    
          TIME INCREMENT MAY NOW INCREASE TO     64.0    

 ITERATION SUMMARY FOR THE INCREMENT:   1 TOTAL ITERATIONS, OF WHICH
   0 ARE SEVERE DISCONTINUITY ITERATIONS AND  1 ARE EQUILIBRIUM ITERATIONS.

 TIME INCREMENT COMPLETED   32.0    ,  FRACTION OF STEP COMPLETED  7.523E-04
 STEP TIME COMPLETED        65.0    ,  TOTAL TIME COMPLETED         65.0    


  INCREMENT     9 STARTS. ATTEMPT NUMBER  1, TIME INCREMENT   64.0    
 
	UNSYMMETRIC NEW DIRECT SPARSE SOLVER RUNNING ON
 	1 HOST x 1 MPI RANK PER HOST x 1 THREAD PER RANK
        NUMBER OF EQUATIONS:  3216
        NUMBER OF RHS:        1
        NUMBER OF FLOPS:      3.844e+06
        SOLVER ELAPSED TIME:  16ms

               CONVERGENCE CHECKS FOR EQUILIBRIUM ITERATION     1


 AVERAGE MASS FLUX                   0.00       TIME AVG. MASS FLUX   1.000E-02
 ALL MASS FLUX RESIDUALS ARE ZERO
 ALL CONCENT. INCREMENTS ARE ZERO
 ALL CORRECTION TO CONCENT. ARE ZERO
          THERE IS ZERO MASS FLUX EVERYWHERE

 MAXIMUM NON-PRESCRIBED INCREMENT IN NORMALIZED CONCENTRATION IS    0.00    
          TIME INCREMENT MAY NOW INCREASE TO     128.    

 ITERATION SUMMARY FOR THE INCREMENT:   1 TOTAL ITERATIONS, OF WHICH
   0 ARE SEVERE DISCONTINUITY ITERATIONS AND  1 ARE EQUILIBRIUM ITERATIONS.

 TIME INCREMENT COMPLETED   64.0    ,  FRACTION OF STEP COMPLETED  1.493E-03
 STEP TIME COMPLETED        129.    ,  TOTAL TIME COMPLETED         129.    


  INCREMENT    10 STARTS. ATTEMPT NUMBER  1, TIME INCREMENT   128.    
 
	UNSYMMETRIC NEW DIRECT SPARSE SOLVER RUNNING ON
 	1 HOST x 1 MPI RANK PER HOST x 1 THREAD PER RANK
        NUMBER OF EQUATIONS:  3216
        NUMBER OF RHS:        1
        NUMBER OF FLOPS:      3.844e+06
        SOLVER ELAPSED TIME:  16ms

               CONVERGENCE CHECKS FOR EQUILIBRIUM ITERATION     1


 AVERAGE MASS FLUX                   0.00       TIME AVG. MASS FLUX   1.000E-02
 ALL MASS FLUX RESIDUALS ARE ZERO
 ALL CONCENT. INCREMENTS ARE ZERO
 ALL CORRECTION TO CONCENT. ARE ZERO
          THERE IS ZERO MASS FLUX EVERYWHERE

 MAXIMUM NON-PRESCRIBED INCREMENT IN NORMALIZED CONCENTRATION IS    0.00    
          TIME INCREMENT MAY NOW INCREASE TO     256.    

 ITERATION SUMMARY FOR THE INCREMENT:   1 TOTAL ITERATIONS, OF WHICH
   0 ARE SEVERE DISCONTINUITY ITERATIONS AND  1 ARE EQUILIBRIUM ITERATIONS.

 TIME INCREMENT COMPLETED   128.    ,  FRACTION OF STEP COMPLETED  2.975E-03
 STEP TIME COMPLETED        257.    ,  TOTAL TIME COMPLETED         257.    


  INCREMENT    11 STARTS. ATTEMPT NUMBER  1, TIME INCREMENT   256.    
 
	UNSYMMETRIC NEW DIRECT SPARSE SOLVER RUNNING ON
 	1 HOST x 1 MPI RANK PER HOST x 1 THREAD PER RANK
        NUMBER OF EQUATIONS:  3216
        NUMBER OF RHS:        1
        NUMBER OF FLOPS:      3.844e+06
        SOLVER ELAPSED TIME:  16ms

               CONVERGENCE CHECKS FOR EQUILIBRIUM ITERATION     1


 AVERAGE MASS FLUX                   0.00       TIME AVG. MASS FLUX   1.000E-02
 ALL MASS FLUX RESIDUALS ARE ZERO
 ALL CONCENT. INCREMENTS ARE ZERO
 ALL CORRECTION TO CONCENT. ARE ZERO
          THERE IS ZERO MASS FLUX EVERYWHERE

 MAXIMUM NON-PRESCRIBED INCREMENT IN NORMALIZED CONCENTRATION IS    0.00    
          TIME INCREMENT MAY NOW INCREASE TO     512.    

 ITERATION SUMMARY FOR THE INCREMENT:   1 TOTAL ITERATIONS, OF WHICH
   0 ARE SEVERE DISCONTINUITY ITERATIONS AND  1 ARE EQUILIBRIUM ITERATIONS.

 TIME INCREMENT COMPLETED   256.    ,  FRACTION OF STEP COMPLETED  5.938E-03
 STEP TIME COMPLETED        513.    ,  TOTAL TIME COMPLETED         513.    


  INCREMENT    12 STARTS. ATTEMPT NUMBER  1, TIME INCREMENT   512.    
 
	UNSYMMETRIC NEW DIRECT SPARSE SOLVER RUNNING ON
 	1 HOST x 1 MPI RANK PER HOST x 1 THREAD PER RANK
        NUMBER OF EQUATIONS:  3216
        NUMBER OF RHS:        1
        NUMBER OF FLOPS:      3.844e+06
        SOLVER ELAPSED TIME:  16ms

               CONVERGENCE CHECKS FOR EQUILIBRIUM ITERATION     1


 AVERAGE MASS FLUX                   0.00       TIME AVG. MASS FLUX   1.000E-02
 ALL MASS FLUX RESIDUALS ARE ZERO
 ALL CONCENT. INCREMENTS ARE ZERO
 ALL CORRECTION TO CONCENT. ARE ZERO
          THERE IS ZERO MASS FLUX EVERYWHERE

 MAXIMUM NON-PRESCRIBED INCREMENT IN NORMALIZED CONCENTRATION IS    0.00    
          TIME INCREMENT MAY NOW INCREASE TO    1.024E+03

 ITERATION SUMMARY FOR THE INCREMENT:   1 TOTAL ITERATIONS, OF WHICH
   0 ARE SEVERE DISCONTINUITY ITERATIONS AND  1 ARE EQUILIBRIUM ITERATIONS.

 TIME INCREMENT COMPLETED   512.    ,  FRACTION OF STEP COMPLETED  1.186E-02
 STEP TIME COMPLETED       1.025E+03,  TOTAL TIME COMPLETED        1.025E+03


  INCREMENT    13 STARTS. ATTEMPT NUMBER  1, TIME INCREMENT  1.024E+03
 
	UNSYMMETRIC NEW DIRECT SPARSE SOLVER RUNNING ON
 	1 HOST x 1 MPI RANK PER HOST x 1 THREAD PER RANK
        NUMBER OF EQUATIONS:  3216
        NUMBER OF RHS:        1
        NUMBER OF FLOPS:      3.844e+06
        SOLVER ELAPSED TIME:  16ms

               CONVERGENCE CHECKS FOR EQUILIBRIUM ITERATION     1


 AVERAGE MASS FLUX                   0.00       TIME AVG. MASS FLUX   1.000E-02
 ALL MASS FLUX RESIDUALS ARE ZERO
 ALL CONCENT. INCREMENTS ARE ZERO
 ALL CORRECTION TO CONCENT. ARE ZERO
          THERE IS ZERO MASS FLUX EVERYWHERE

 MAXIMUM NON-PRESCRIBED INCREMENT IN NORMALIZED CONCENTRATION IS    0.00    
          TIME INCREMENT MAY NOW INCREASE TO    2.048E+03

 ITERATION SUMMARY FOR THE INCREMENT:   1 TOTAL ITERATIONS, OF WHICH
   0 ARE SEVERE DISCONTINUITY ITERATIONS AND  1 ARE EQUILIBRIUM ITERATIONS.

 TIME INCREMENT COMPLETED  1.024E+03,  FRACTION OF STEP COMPLETED  2.372E-02
 STEP TIME COMPLETED       2.049E+03,  TOTAL TIME COMPLETED        2.049E+03


  INCREMENT    14 STARTS. ATTEMPT NUMBER  1, TIME INCREMENT  2.048E+03
 
	UNSYMMETRIC NEW DIRECT SPARSE SOLVER RUNNING ON
 	1 HOST x 1 MPI RANK PER HOST x 1 THREAD PER RANK
        NUMBER OF EQUATIONS:  3216
        NUMBER OF RHS:        1
        NUMBER OF FLOPS:      3.844e+06
        SOLVER ELAPSED TIME:  16ms

               CONVERGENCE CHECKS FOR EQUILIBRIUM ITERATION     1


 AVERAGE MASS FLUX                   0.00       TIME AVG. MASS FLUX   1.000E-02
 ALL MASS FLUX RESIDUALS ARE ZERO
 ALL CONCENT. INCREMENTS ARE ZERO
 ALL CORRECTION TO CONCENT. ARE ZERO
          THERE IS ZERO MASS FLUX EVERYWHERE

 MAXIMUM NON-PRESCRIBED INCREMENT IN NORMALIZED CONCENTRATION IS    0.00    
          TIME INCREMENT MAY NOW INCREASE TO    3.600E+03

 ITERATION SUMMARY FOR THE INCREMENT:   1 TOTAL ITERATIONS, OF WHICH
   0 ARE SEVERE DISCONTINUITY ITERATIONS AND  1 ARE EQUILIBRIUM ITERATIONS.

 TIME INCREMENT COMPLETED  2.048E+03,  FRACTION OF STEP COMPLETED  4.742E-02
 STEP TIME COMPLETED       4.097E+03,  TOTAL TIME COMPLETED        4.097E+03


  INCREMENT    15 STARTS. ATTEMPT NUMBER  1, TIME INCREMENT  3.600E+03
 
	UNSYMMETRIC NEW DIRECT SPARSE SOLVER RUNNING ON
 	1 HOST x 1 MPI RANK PER HOST x 1 THREAD PER RANK
        NUMBER OF EQUATIONS:  3216
        NUMBER OF RHS:        1
        NUMBER OF FLOPS:      3.844e+06
        SOLVER ELAPSED TIME:  11ms

               CONVERGENCE CHECKS FOR EQUILIBRIUM ITERATION     1


 AVERAGE MASS FLUX                   0.00       TIME AVG. MASS FLUX   1.000E-02
 ALL MASS FLUX RESIDUALS ARE ZERO
 ALL CONCENT. INCREMENTS ARE ZERO
 ALL CORRECTION TO CONCENT. ARE ZERO
          THERE IS ZERO MASS FLUX EVERYWHERE

 MAXIMUM NON-PRESCRIBED INCREMENT IN NORMALIZED CONCENTRATION IS    0.00    

 ITERATION SUMMARY FOR THE INCREMENT:   1 TOTAL ITERATIONS, OF WHICH
   0 ARE SEVERE DISCONTINUITY ITERATIONS AND  1 ARE EQUILIBRIUM ITERATIONS.

 TIME INCREMENT COMPLETED  3.600E+03,  FRACTION OF STEP COMPLETED  8.909E-02
 STEP TIME COMPLETED       7.697E+03,  TOTAL TIME COMPLETED        7.697E+03


  INCREMENT    16 STARTS. ATTEMPT NUMBER  1, TIME INCREMENT  3.600E+03
 
	UNSYMMETRIC NEW DIRECT SPARSE SOLVER RUNNING ON
 	1 HOST x 1 MPI RANK PER HOST x 1 THREAD PER RANK
        NUMBER OF EQUATIONS:  3216
        NUMBER OF RHS:        1
        NUMBER OF FLOPS:      3.844e+06
        SOLVER ELAPSED TIME:  11ms

               CONVERGENCE CHECKS FOR EQUILIBRIUM ITERATION     1


 AVERAGE MASS FLUX                   0.00       TIME AVG. MASS FLUX   1.000E-02
 ALL MASS FLUX RESIDUALS ARE ZERO
 ALL CONCENT. INCREMENTS ARE ZERO
 ALL CORRECTION TO CONCENT. ARE ZERO
          THERE IS ZERO MASS FLUX EVERYWHERE

 MAXIMUM NON-PRESCRIBED INCREMENT IN NORMALIZED CONCENTRATION IS    0.00    

 ITERATION SUMMARY FOR THE INCREMENT:   1 TOTAL ITERATIONS, OF WHICH
   0 ARE SEVERE DISCONTINUITY ITERATIONS AND  1 ARE EQUILIBRIUM ITERATIONS.

 TIME INCREMENT COMPLETED  3.600E+03,  FRACTION OF STEP COMPLETED  0.131    
 STEP TIME COMPLETED       1.130E+04,  TOTAL TIME COMPLETED        1.130E+04


  INCREMENT    17 STARTS. ATTEMPT NUMBER  1, TIME INCREMENT  3.600E+03
 
	UNSYMMETRIC NEW DIRECT SPARSE SOLVER RUNNING ON
 	1 HOST x 1 MPI RANK PER HOST x 1 THREAD PER RANK
        NUMBER OF EQUATIONS:  3216
        NUMBER OF RHS:        1
        NUMBER OF FLOPS:      3.844e+06
        SOLVER ELAPSED TIME:  11ms

               CONVERGENCE CHECKS FOR EQUILIBRIUM ITERATION     1


 AVERAGE MASS FLUX                   0.00       TIME AVG. MASS FLUX   1.000E-02
 ALL MASS FLUX RESIDUALS ARE ZERO
 ALL CONCENT. INCREMENTS ARE ZERO
 ALL CORRECTION TO CONCENT. ARE ZERO
          THERE IS ZERO MASS FLUX EVERYWHERE

 MAXIMUM NON-PRESCRIBED INCREMENT IN NORMALIZED CONCENTRATION IS    0.00    

 ITERATION SUMMARY FOR THE INCREMENT:   1 TOTAL ITERATIONS, OF WHICH
   0 ARE SEVERE DISCONTINUITY ITERATIONS AND  1 ARE EQUILIBRIUM ITERATIONS.

 TIME INCREMENT COMPLETED  3.600E+03,  FRACTION OF STEP COMPLETED  0.172    
 STEP TIME COMPLETED       1.490E+04,  TOTAL TIME COMPLETED        1.490E+04


  INCREMENT    18 STARTS. ATTEMPT NUMBER  1, TIME INCREMENT  3.600E+03
 
	UNSYMMETRIC NEW DIRECT SPARSE SOLVER RUNNING ON
 	1 HOST x 1 MPI RANK PER HOST x 1 THREAD PER RANK
        NUMBER OF EQUATIONS:  3216
        NUMBER OF RHS:        1
        NUMBER OF FLOPS:      3.844e+06
        SOLVER ELAPSED TIME:  16ms

               CONVERGENCE CHECKS FOR EQUILIBRIUM ITERATION     1


 AVERAGE MASS FLUX                   0.00       TIME AVG. MASS FLUX   1.000E-02
 ALL MASS FLUX RESIDUALS ARE ZERO
 ALL CONCENT. INCREMENTS ARE ZERO
 ALL CORRECTION TO CONCENT. ARE ZERO
          THERE IS ZERO MASS FLUX EVERYWHERE

 MAXIMUM NON-PRESCRIBED INCREMENT IN NORMALIZED CONCENTRATION IS    0.00    

 ITERATION SUMMARY FOR THE INCREMENT:   1 TOTAL ITERATIONS, OF WHICH
   0 ARE SEVERE DISCONTINUITY ITERATIONS AND  1 ARE EQUILIBRIUM ITERATIONS.

 TIME INCREMENT COMPLETED  3.600E+03,  FRACTION OF STEP COMPLETED  0.214    
 STEP TIME COMPLETED       1.850E+04,  TOTAL TIME COMPLETED        1.850E+04


  INCREMENT    19 STARTS. ATTEMPT NUMBER  1, TIME INCREMENT  3.600E+03
 
	UNSYMMETRIC NEW DIRECT SPARSE SOLVER RUNNING ON
 	1 HOST x 1 MPI RANK PER HOST x 1 THREAD PER RANK
        NUMBER OF EQUATIONS:  3216
        NUMBER OF RHS:        1
        NUMBER OF FLOPS:      3.844e+06
        SOLVER ELAPSED TIME:  11ms

               CONVERGENCE CHECKS FOR EQUILIBRIUM ITERATION     1


 AVERAGE MASS FLUX                   0.00       TIME AVG. MASS FLUX   1.000E-02
 ALL MASS FLUX RESIDUALS ARE ZERO
 ALL CONCENT. INCREMENTS ARE ZERO
 ALL CORRECTION TO CONCENT. ARE ZERO
          THERE IS ZERO MASS FLUX EVERYWHERE

 MAXIMUM NON-PRESCRIBED INCREMENT IN NORMALIZED CONCENTRATION IS    0.00    

 ITERATION SUMMARY FOR THE INCREMENT:   1 TOTAL ITERATIONS, OF WHICH
   0 ARE SEVERE DISCONTINUITY ITERATIONS AND  1 ARE EQUILIBRIUM ITERATIONS.

 TIME INCREMENT COMPLETED  3.600E+03,  FRACTION OF STEP COMPLETED  0.256    
 STEP TIME COMPLETED       2.210E+04,  TOTAL TIME COMPLETED        2.210E+04


  INCREMENT    20 STARTS. ATTEMPT NUMBER  1, TIME INCREMENT  3.600E+03
 
	UNSYMMETRIC NEW DIRECT SPARSE SOLVER RUNNING ON
 	1 HOST x 1 MPI RANK PER HOST x 1 THREAD PER RANK
        NUMBER OF EQUATIONS:  3216
        NUMBER OF RHS:        1
        NUMBER OF FLOPS:      3.844e+06
        SOLVER ELAPSED TIME:  16ms

               CONVERGENCE CHECKS FOR EQUILIBRIUM ITERATION     1


 AVERAGE MASS FLUX                   0.00       TIME AVG. MASS FLUX   1.000E-02
 ALL MASS FLUX RESIDUALS ARE ZERO
 ALL CONCENT. INCREMENTS ARE ZERO
 ALL CORRECTION TO CONCENT. ARE ZERO
          THERE IS ZERO MASS FLUX EVERYWHERE

 MAXIMUM NON-PRESCRIBED INCREMENT IN NORMALIZED CONCENTRATION IS    0.00    

 ITERATION SUMMARY FOR THE INCREMENT:   1 TOTAL ITERATIONS, OF WHICH
   0 ARE SEVERE DISCONTINUITY ITERATIONS AND  1 ARE EQUILIBRIUM ITERATIONS.

 TIME INCREMENT COMPLETED  3.600E+03,  FRACTION OF STEP COMPLETED  0.297    
 STEP TIME COMPLETED       2.570E+04,  TOTAL TIME COMPLETED        2.570E+04


  INCREMENT    21 STARTS. ATTEMPT NUMBER  1, TIME INCREMENT  3.600E+03
 
	UNSYMMETRIC NEW DIRECT SPARSE SOLVER RUNNING ON
 	1 HOST x 1 MPI RANK PER HOST x 1 THREAD PER RANK
        NUMBER OF EQUATIONS:  3216
        NUMBER OF RHS:        1
        NUMBER OF FLOPS:      3.844e+06
        SOLVER ELAPSED TIME:  16ms

               CONVERGENCE CHECKS FOR EQUILIBRIUM ITERATION     1


 AVERAGE MASS FLUX                   0.00       TIME AVG. MASS FLUX   1.000E-02
 ALL MASS FLUX RESIDUALS ARE ZERO
 ALL CONCENT. INCREMENTS ARE ZERO
 ALL CORRECTION TO CONCENT. ARE ZERO
          THERE IS ZERO MASS FLUX EVERYWHERE

 MAXIMUM NON-PRESCRIBED INCREMENT IN NORMALIZED CONCENTRATION IS    0.00    

 ITERATION SUMMARY FOR THE INCREMENT:   1 TOTAL ITERATIONS, OF WHICH
   0 ARE SEVERE DISCONTINUITY ITERATIONS AND  1 ARE EQUILIBRIUM ITERATIONS.

 TIME INCREMENT COMPLETED  3.600E+03,  FRACTION OF STEP COMPLETED  0.339    
 STEP TIME COMPLETED       2.930E+04,  TOTAL TIME COMPLETED        2.930E+04


  INCREMENT    22 STARTS. ATTEMPT NUMBER  1, TIME INCREMENT  3.600E+03
 
	UNSYMMETRIC NEW DIRECT SPARSE SOLVER RUNNING ON
 	1 HOST x 1 MPI RANK PER HOST x 1 THREAD PER RANK
        NUMBER OF EQUATIONS:  3216
        NUMBER OF RHS:        1
        NUMBER OF FLOPS:      3.844e+06
        SOLVER ELAPSED TIME:  16ms

               CONVERGENCE CHECKS FOR EQUILIBRIUM ITERATION     1


 AVERAGE MASS FLUX                   0.00       TIME AVG. MASS FLUX   1.000E-02
 ALL MASS FLUX RESIDUALS ARE ZERO
 ALL CONCENT. INCREMENTS ARE ZERO
 ALL CORRECTION TO CONCENT. ARE ZERO
          THERE IS ZERO MASS FLUX EVERYWHERE

 MAXIMUM NON-PRESCRIBED INCREMENT IN NORMALIZED CONCENTRATION IS    0.00    

 ITERATION SUMMARY FOR THE INCREMENT:   1 TOTAL ITERATIONS, OF WHICH
   0 ARE SEVERE DISCONTINUITY ITERATIONS AND  1 ARE EQUILIBRIUM ITERATIONS.

 TIME INCREMENT COMPLETED  3.600E+03,  FRACTION OF STEP COMPLETED  0.381    
 STEP TIME COMPLETED       3.290E+04,  TOTAL TIME COMPLETED        3.290E+04


  INCREMENT    23 STARTS. ATTEMPT NUMBER  1, TIME INCREMENT  3.600E+03
 
	UNSYMMETRIC NEW DIRECT SPARSE SOLVER RUNNING ON
 	1 HOST x 1 MPI RANK PER HOST x 1 THREAD PER RANK
        NUMBER OF EQUATIONS:  3216
        NUMBER OF RHS:        1
        NUMBER OF FLOPS:      3.844e+06
        SOLVER ELAPSED TIME:  16ms

               CONVERGENCE CHECKS FOR EQUILIBRIUM ITERATION     1


 AVERAGE MASS FLUX                   0.00       TIME AVG. MASS FLUX   1.000E-02
 ALL MASS FLUX RESIDUALS ARE ZERO
 ALL CONCENT. INCREMENTS ARE ZERO
 ALL CORRECTION TO CONCENT. ARE ZERO
          THERE IS ZERO MASS FLUX EVERYWHERE

 MAXIMUM NON-PRESCRIBED INCREMENT IN NORMALIZED CONCENTRATION IS    0.00    

 ITERATION SUMMARY FOR THE INCREMENT:   1 TOTAL ITERATIONS, OF WHICH
   0 ARE SEVERE DISCONTINUITY ITERATIONS AND  1 ARE EQUILIBRIUM ITERATIONS.

 TIME INCREMENT COMPLETED  3.600E+03,  FRACTION OF STEP COMPLETED  0.422    
 STEP TIME COMPLETED       3.650E+04,  TOTAL TIME COMPLETED        3.650E+04


  INCREMENT    24 STARTS. ATTEMPT NUMBER  1, TIME INCREMENT  3.600E+03
 
	UNSYMMETRIC NEW DIRECT SPARSE SOLVER RUNNING ON
 	1 HOST x 1 MPI RANK PER HOST x 1 THREAD PER RANK
        NUMBER OF EQUATIONS:  3216
        NUMBER OF RHS:        1
        NUMBER OF FLOPS:      3.844e+06
        SOLVER ELAPSED TIME:  16ms

               CONVERGENCE CHECKS FOR EQUILIBRIUM ITERATION     1


 AVERAGE MASS FLUX                   0.00       TIME AVG. MASS FLUX   1.000E-02
 ALL MASS FLUX RESIDUALS ARE ZERO
 ALL CONCENT. INCREMENTS ARE ZERO
 ALL CORRECTION TO CONCENT. ARE ZERO
          THERE IS ZERO MASS FLUX EVERYWHERE

 MAXIMUM NON-PRESCRIBED INCREMENT IN NORMALIZED CONCENTRATION IS    0.00    

 ITERATION SUMMARY FOR THE INCREMENT:   1 TOTAL ITERATIONS, OF WHICH
   0 ARE SEVERE DISCONTINUITY ITERATIONS AND  1 ARE EQUILIBRIUM ITERATIONS.

 TIME INCREMENT COMPLETED  3.600E+03,  FRACTION OF STEP COMPLETED  0.464    
 STEP TIME COMPLETED       4.010E+04,  TOTAL TIME COMPLETED        4.010E+04


  INCREMENT    25 STARTS. ATTEMPT NUMBER  1, TIME INCREMENT  3.600E+03
 
	UNSYMMETRIC NEW DIRECT SPARSE SOLVER RUNNING ON
 	1 HOST x 1 MPI RANK PER HOST x 1 THREAD PER RANK
        NUMBER OF EQUATIONS:  3216
        NUMBER OF RHS:        1
        NUMBER OF FLOPS:      3.844e+06
        SOLVER ELAPSED TIME:  16ms

               CONVERGENCE CHECKS FOR EQUILIBRIUM ITERATION     1


 AVERAGE MASS FLUX                   0.00       TIME AVG. MASS FLUX   1.000E-02
 ALL MASS FLUX RESIDUALS ARE ZERO
 ALL CONCENT. INCREMENTS ARE ZERO
 ALL CORRECTION TO CONCENT. ARE ZERO
          THERE IS ZERO MASS FLUX EVERYWHERE

 MAXIMUM NON-PRESCRIBED INCREMENT IN NORMALIZED CONCENTRATION IS    0.00    

 ITERATION SUMMARY FOR THE INCREMENT:   1 TOTAL ITERATIONS, OF WHICH
   0 ARE SEVERE DISCONTINUITY ITERATIONS AND  1 ARE EQUILIBRIUM ITERATIONS.

 TIME INCREMENT COMPLETED  3.600E+03,  FRACTION OF STEP COMPLETED  0.506    
 STEP TIME COMPLETED       4.370E+04,  TOTAL TIME COMPLETED        4.370E+04


  INCREMENT    26 STARTS. ATTEMPT NUMBER  1, TIME INCREMENT  3.600E+03
 
	UNSYMMETRIC NEW DIRECT SPARSE SOLVER RUNNING ON
 	1 HOST x 1 MPI RANK PER HOST x 1 THREAD PER RANK
        NUMBER OF EQUATIONS:  3216
        NUMBER OF RHS:        1
        NUMBER OF FLOPS:      3.844e+06
        SOLVER ELAPSED TIME:  12ms

               CONVERGENCE CHECKS FOR EQUILIBRIUM ITERATION     1


 AVERAGE MASS FLUX                   0.00       TIME AVG. MASS FLUX   1.000E-02
 ALL MASS FLUX RESIDUALS ARE ZERO
 ALL CONCENT. INCREMENTS ARE ZERO
 ALL CORRECTION TO CONCENT. ARE ZERO
          THERE IS ZERO MASS FLUX EVERYWHERE

 MAXIMUM NON-PRESCRIBED INCREMENT IN NORMALIZED CONCENTRATION IS    0.00    

 ITERATION SUMMARY FOR THE INCREMENT:   1 TOTAL ITERATIONS, OF WHICH
   0 ARE SEVERE DISCONTINUITY ITERATIONS AND  1 ARE EQUILIBRIUM ITERATIONS.

 TIME INCREMENT COMPLETED  3.600E+03,  FRACTION OF STEP COMPLETED  0.547    
 STEP TIME COMPLETED       4.730E+04,  TOTAL TIME COMPLETED        4.730E+04


  INCREMENT    27 STARTS. ATTEMPT NUMBER  1, TIME INCREMENT  3.600E+03
 
	UNSYMMETRIC NEW DIRECT SPARSE SOLVER RUNNING ON
 	1 HOST x 1 MPI RANK PER HOST x 1 THREAD PER RANK
        NUMBER OF EQUATIONS:  3216
        NUMBER OF RHS:        1
        NUMBER OF FLOPS:      3.844e+06
        SOLVER ELAPSED TIME:  16ms

               CONVERGENCE CHECKS FOR EQUILIBRIUM ITERATION     1


 AVERAGE MASS FLUX                   0.00       TIME AVG. MASS FLUX   1.000E-02
 ALL MASS FLUX RESIDUALS ARE ZERO
 ALL CONCENT. INCREMENTS ARE ZERO
 ALL CORRECTION TO CONCENT. ARE ZERO
          THERE IS ZERO MASS FLUX EVERYWHERE

 MAXIMUM NON-PRESCRIBED INCREMENT IN NORMALIZED CONCENTRATION IS    0.00    

 ITERATION SUMMARY FOR THE INCREMENT:   1 TOTAL ITERATIONS, OF WHICH
   0 ARE SEVERE DISCONTINUITY ITERATIONS AND  1 ARE EQUILIBRIUM ITERATIONS.

 TIME INCREMENT COMPLETED  3.600E+03,  FRACTION OF STEP COMPLETED  0.589    
 STEP TIME COMPLETED       5.090E+04,  TOTAL TIME COMPLETED        5.090E+04


  INCREMENT    28 STARTS. ATTEMPT NUMBER  1, TIME INCREMENT  3.600E+03
 
	UNSYMMETRIC NEW DIRECT SPARSE SOLVER RUNNING ON
 	1 HOST x 1 MPI RANK PER HOST x 1 THREAD PER RANK
        NUMBER OF EQUATIONS:  3216
        NUMBER OF RHS:        1
        NUMBER OF FLOPS:      3.844e+06
        SOLVER ELAPSED TIME:  12ms

               CONVERGENCE CHECKS FOR EQUILIBRIUM ITERATION     1


 AVERAGE MASS FLUX                   0.00       TIME AVG. MASS FLUX   1.000E-02
 ALL MASS FLUX RESIDUALS ARE ZERO
 ALL CONCENT. INCREMENTS ARE ZERO
 ALL CORRECTION TO CONCENT. ARE ZERO
          THERE IS ZERO MASS FLUX EVERYWHERE

 MAXIMUM NON-PRESCRIBED INCREMENT IN NORMALIZED CONCENTRATION IS    0.00    

 ITERATION SUMMARY FOR THE INCREMENT:   1 TOTAL ITERATIONS, OF WHICH
   0 ARE SEVERE DISCONTINUITY ITERATIONS AND  1 ARE EQUILIBRIUM ITERATIONS.

 TIME INCREMENT COMPLETED  3.600E+03,  FRACTION OF STEP COMPLETED  0.631    
 STEP TIME COMPLETED       5.450E+04,  TOTAL TIME COMPLETED        5.450E+04


  INCREMENT    29 STARTS. ATTEMPT NUMBER  1, TIME INCREMENT  3.600E+03
 
	UNSYMMETRIC NEW DIRECT SPARSE SOLVER RUNNING ON
 	1 HOST x 1 MPI RANK PER HOST x 1 THREAD PER RANK
        NUMBER OF EQUATIONS:  3216
        NUMBER OF RHS:        1
        NUMBER OF FLOPS:      3.844e+06
        SOLVER ELAPSED TIME:  12ms

               CONVERGENCE CHECKS FOR EQUILIBRIUM ITERATION     1


 AVERAGE MASS FLUX                   0.00       TIME AVG. MASS FLUX   1.000E-02
 ALL MASS FLUX RESIDUALS ARE ZERO
 ALL CONCENT. INCREMENTS ARE ZERO
 ALL CORRECTION TO CONCENT. ARE ZERO
          THERE IS ZERO MASS FLUX EVERYWHERE

 MAXIMUM NON-PRESCRIBED INCREMENT IN NORMALIZED CONCENTRATION IS    0.00    

 ITERATION SUMMARY FOR THE INCREMENT:   1 TOTAL ITERATIONS, OF WHICH
   0 ARE SEVERE DISCONTINUITY ITERATIONS AND  1 ARE EQUILIBRIUM ITERATIONS.

 TIME INCREMENT COMPLETED  3.600E+03,  FRACTION OF STEP COMPLETED  0.672    
 STEP TIME COMPLETED       5.810E+04,  TOTAL TIME COMPLETED        5.810E+04


  INCREMENT    30 STARTS. ATTEMPT NUMBER  1, TIME INCREMENT  3.600E+03
 
	UNSYMMETRIC NEW DIRECT SPARSE SOLVER RUNNING ON
 	1 HOST x 1 MPI RANK PER HOST x 1 THREAD PER RANK
        NUMBER OF EQUATIONS:  3216
        NUMBER OF RHS:        1
        NUMBER OF FLOPS:      3.844e+06
        SOLVER ELAPSED TIME:  16ms

               CONVERGENCE CHECKS FOR EQUILIBRIUM ITERATION     1


 AVERAGE MASS FLUX                   0.00       TIME AVG. MASS FLUX   1.000E-02
 ALL MASS FLUX RESIDUALS ARE ZERO
 ALL CONCENT. INCREMENTS ARE ZERO
 ALL CORRECTION TO CONCENT. ARE ZERO
          THERE IS ZERO MASS FLUX EVERYWHERE

 MAXIMUM NON-PRESCRIBED INCREMENT IN NORMALIZED CONCENTRATION IS    0.00    

 ITERATION SUMMARY FOR THE INCREMENT:   1 TOTAL ITERATIONS, OF WHICH
   0 ARE SEVERE DISCONTINUITY ITERATIONS AND  1 ARE EQUILIBRIUM ITERATIONS.

 TIME INCREMENT COMPLETED  3.600E+03,  FRACTION OF STEP COMPLETED  0.714    
 STEP TIME COMPLETED       6.170E+04,  TOTAL TIME COMPLETED        6.170E+04


  INCREMENT    31 STARTS. ATTEMPT NUMBER  1, TIME INCREMENT  3.600E+03
 
	UNSYMMETRIC NEW DIRECT SPARSE SOLVER RUNNING ON
 	1 HOST x 1 MPI RANK PER HOST x 1 THREAD PER RANK
        NUMBER OF EQUATIONS:  3216
        NUMBER OF RHS:        1
        NUMBER OF FLOPS:      3.844e+06
        SOLVER ELAPSED TIME:  16ms

               CONVERGENCE CHECKS FOR EQUILIBRIUM ITERATION     1


 AVERAGE MASS FLUX                   0.00       TIME AVG. MASS FLUX   1.000E-02
 ALL MASS FLUX RESIDUALS ARE ZERO
 ALL CONCENT. INCREMENTS ARE ZERO
 ALL CORRECTION TO CONCENT. ARE ZERO
          THERE IS ZERO MASS FLUX EVERYWHERE

 MAXIMUM NON-PRESCRIBED INCREMENT IN NORMALIZED CONCENTRATION IS    0.00    

 ITERATION SUMMARY FOR THE INCREMENT:   1 TOTAL ITERATIONS, OF WHICH
   0 ARE SEVERE DISCONTINUITY ITERATIONS AND  1 ARE EQUILIBRIUM ITERATIONS.

 TIME INCREMENT COMPLETED  3.600E+03,  FRACTION OF STEP COMPLETED  0.756    
 STEP TIME COMPLETED       6.530E+04,  TOTAL TIME COMPLETED        6.530E+04


  INCREMENT    32 STARTS. ATTEMPT NUMBER  1, TIME INCREMENT  3.600E+03
 
	UNSYMMETRIC NEW DIRECT SPARSE SOLVER RUNNING ON
 	1 HOST x 1 MPI RANK PER HOST x 1 THREAD PER RANK
        NUMBER OF EQUATIONS:  3216
        NUMBER OF RHS:        1
        NUMBER OF FLOPS:      3.844e+06
        SOLVER ELAPSED TIME:  16ms

               CONVERGENCE CHECKS FOR EQUILIBRIUM ITERATION     1


 AVERAGE MASS FLUX                   0.00       TIME AVG. MASS FLUX   1.000E-02
 ALL MASS FLUX RESIDUALS ARE ZERO
 ALL CONCENT. INCREMENTS ARE ZERO
 ALL CORRECTION TO CONCENT. ARE ZERO
          THERE IS ZERO MASS FLUX EVERYWHERE

 MAXIMUM NON-PRESCRIBED INCREMENT IN NORMALIZED CONCENTRATION IS    0.00    

 ITERATION SUMMARY FOR THE INCREMENT:   1 TOTAL ITERATIONS, OF WHICH
   0 ARE SEVERE DISCONTINUITY ITERATIONS AND  1 ARE EQUILIBRIUM ITERATIONS.

 TIME INCREMENT COMPLETED  3.600E+03,  FRACTION OF STEP COMPLETED  0.797    
 STEP TIME COMPLETED       6.890E+04,  TOTAL TIME COMPLETED        6.890E+04


  INCREMENT    33 STARTS. ATTEMPT NUMBER  1, TIME INCREMENT  3.600E+03
 
	UNSYMMETRIC NEW DIRECT SPARSE SOLVER RUNNING ON
 	1 HOST x 1 MPI RANK PER HOST x 1 THREAD PER RANK
        NUMBER OF EQUATIONS:  3216
        NUMBER OF RHS:        1
        NUMBER OF FLOPS:      3.844e+06
        SOLVER ELAPSED TIME:  16ms

               CONVERGENCE CHECKS FOR EQUILIBRIUM ITERATION     1


 AVERAGE MASS FLUX                   0.00       TIME AVG. MASS FLUX   1.000E-02
 ALL MASS FLUX RESIDUALS ARE ZERO
 ALL CONCENT. INCREMENTS ARE ZERO
 ALL CORRECTION TO CONCENT. ARE ZERO
          THERE IS ZERO MASS FLUX EVERYWHERE

 MAXIMUM NON-PRESCRIBED INCREMENT IN NORMALIZED CONCENTRATION IS    0.00    

 ITERATION SUMMARY FOR THE INCREMENT:   1 TOTAL ITERATIONS, OF WHICH
   0 ARE SEVERE DISCONTINUITY ITERATIONS AND  1 ARE EQUILIBRIUM ITERATIONS.

 TIME INCREMENT COMPLETED  3.600E+03,  FRACTION OF STEP COMPLETED  0.839    
 STEP TIME COMPLETED       7.250E+04,  TOTAL TIME COMPLETED        7.250E+04


  INCREMENT    34 STARTS. ATTEMPT NUMBER  1, TIME INCREMENT  3.600E+03
 
	UNSYMMETRIC NEW DIRECT SPARSE SOLVER RUNNING ON
 	1 HOST x 1 MPI RANK PER HOST x 1 THREAD PER RANK
        NUMBER OF EQUATIONS:  3216
        NUMBER OF RHS:        1
        NUMBER OF FLOPS:      3.844e+06
        SOLVER ELAPSED TIME:  13ms

               CONVERGENCE CHECKS FOR EQUILIBRIUM ITERATION     1


 AVERAGE MASS FLUX                   0.00       TIME AVG. MASS FLUX   1.000E-02
 ALL MASS FLUX RESIDUALS ARE ZERO
 ALL CONCENT. INCREMENTS ARE ZERO
 ALL CORRECTION TO CONCENT. ARE ZERO
          THERE IS ZERO MASS FLUX EVERYWHERE

 MAXIMUM NON-PRESCRIBED INCREMENT IN NORMALIZED CONCENTRATION IS    0.00    

 ITERATION SUMMARY FOR THE INCREMENT:   1 TOTAL ITERATIONS, OF WHICH
   0 ARE SEVERE DISCONTINUITY ITERATIONS AND  1 ARE EQUILIBRIUM ITERATIONS.

 TIME INCREMENT COMPLETED  3.600E+03,  FRACTION OF STEP COMPLETED  0.881    
 STEP TIME COMPLETED       7.610E+04,  TOTAL TIME COMPLETED        7.610E+04


  INCREMENT    35 STARTS. ATTEMPT NUMBER  1, TIME INCREMENT  3.600E+03
 
	UNSYMMETRIC NEW DIRECT SPARSE SOLVER RUNNING ON
 	1 HOST x 1 MPI RANK PER HOST x 1 THREAD PER RANK
        NUMBER OF EQUATIONS:  3216
        NUMBER OF RHS:        1
        NUMBER OF FLOPS:      3.844e+06
        SOLVER ELAPSED TIME:  16ms

               CONVERGENCE CHECKS FOR EQUILIBRIUM ITERATION     1


 AVERAGE MASS FLUX                   0.00       TIME AVG. MASS FLUX   1.000E-02
 ALL MASS FLUX RESIDUALS ARE ZERO
 ALL CONCENT. INCREMENTS ARE ZERO
 ALL CORRECTION TO CONCENT. ARE ZERO
          THERE IS ZERO MASS FLUX EVERYWHERE

 MAXIMUM NON-PRESCRIBED INCREMENT IN NORMALIZED CONCENTRATION IS    0.00    

 ITERATION SUMMARY FOR THE INCREMENT:   1 TOTAL ITERATIONS, OF WHICH
   0 ARE SEVERE DISCONTINUITY ITERATIONS AND  1 ARE EQUILIBRIUM ITERATIONS.

 TIME INCREMENT COMPLETED  3.600E+03,  FRACTION OF STEP COMPLETED  0.922    
 STEP TIME COMPLETED       7.970E+04,  TOTAL TIME COMPLETED        7.970E+04


  INCREMENT    36 STARTS. ATTEMPT NUMBER  1, TIME INCREMENT  3.600E+03
 
	UNSYMMETRIC NEW DIRECT SPARSE SOLVER RUNNING ON
 	1 HOST x 1 MPI RANK PER HOST x 1 THREAD PER RANK
        NUMBER OF EQUATIONS:  3216
        NUMBER OF RHS:        1
        NUMBER OF FLOPS:      3.844e+06
        SOLVER ELAPSED TIME:  13ms

               CONVERGENCE CHECKS FOR EQUILIBRIUM ITERATION     1


 AVERAGE MASS FLUX                   0.00       TIME AVG. MASS FLUX   1.000E-02
 ALL MASS FLUX RESIDUALS ARE ZERO
 ALL CONCENT. INCREMENTS ARE ZERO
 ALL CORRECTION TO CONCENT. ARE ZERO
          THERE IS ZERO MASS FLUX EVERYWHERE

 MAXIMUM NON-PRESCRIBED INCREMENT IN NORMALIZED CONCENTRATION IS    0.00    

 ITERATION SUMMARY FOR THE INCREMENT:   1 TOTAL ITERATIONS, OF WHICH
   0 ARE SEVERE DISCONTINUITY ITERATIONS AND  1 ARE EQUILIBRIUM ITERATIONS.

 TIME INCREMENT COMPLETED  3.600E+03,  FRACTION OF STEP COMPLETED  0.964    
 STEP TIME COMPLETED       8.330E+04,  TOTAL TIME COMPLETED        8.330E+04


  INCREMENT    37 STARTS. ATTEMPT NUMBER  1, TIME INCREMENT  3.103E+03
 
	UNSYMMETRIC NEW DIRECT SPARSE SOLVER RUNNING ON
 	1 HOST x 1 MPI RANK PER HOST x 1 THREAD PER RANK
        NUMBER OF EQUATIONS:  3216
        NUMBER OF RHS:        1
        NUMBER OF FLOPS:      3.844e+06
        SOLVER ELAPSED TIME:  11ms

               CONVERGENCE CHECKS FOR EQUILIBRIUM ITERATION     1


 AVERAGE MASS FLUX                   0.00       TIME AVG. MASS FLUX   1.000E-02
 ALL MASS FLUX RESIDUALS ARE ZERO
 ALL CONCENT. INCREMENTS ARE ZERO
 ALL CORRECTION TO CONCENT. ARE ZERO
          THERE IS ZERO MASS FLUX EVERYWHERE

 MAXIMUM NON-PRESCRIBED INCREMENT IN NORMALIZED CONCENTRATION IS    0.00    

 ITERATION SUMMARY FOR THE INCREMENT:   1 TOTAL ITERATIONS, OF WHICH
   0 ARE SEVERE DISCONTINUITY ITERATIONS AND  1 ARE EQUILIBRIUM ITERATIONS.

 TIME INCREMENT COMPLETED  3.103E+03,  FRACTION OF STEP COMPLETED   1.00    
 STEP TIME COMPLETED       8.640E+04,  TOTAL TIME COMPLETED        8.640E+04


          THE ANALYSIS HAS BEEN COMPLETED



     ANALYSIS SUMMARY:
     TOTAL OF         37  INCREMENTS
                       0  CUTBACKS IN AUTOMATIC INCREMENTATION
                      37  ITERATIONS INCLUDING CONTACT ITERATIONS IF PRESENT
                      37  PASSES THROUGH THE EQUATION SOLVER OF WHICH 
                      37  INVOLVE MATRIX DECOMPOSITION, INCLUDING
                       0  DECOMPOSITION(S) OF THE MASS MATRIX
                       1  REORDERING OF EQUATIONS TO MINIMIZE WAVEFRONT
                       0  ADDITIONAL RESIDUAL EVALUATIONS FOR LINE SEARCHES
                       0  ADDITIONAL OPERATOR EVALUATIONS FOR LINE SEARCHES
                       0  WARNING MESSAGES DURING USER INPUT PROCESSING
                       0  WARNING MESSAGES DURING ANALYSIS
                       0  ANALYSIS WARNINGS ARE NUMERICAL PROBLEM MESSAGES
                       0  ANALYSIS WARNINGS ARE NEGATIVE EIGENVALUE MESSAGES
                       0  ERROR MESSAGES



     JOB TIME SUMMARY
       USER TIME (SEC)      =      7.2    
       SYSTEM TIME (SEC)    =     0.40    
       TOTAL CPU TIME (SEC) =      7.6    
       WALLCLOCK TIME (SEC) =            8
       MEMORY PEAK (GB)     =            0
