 Abaqus/Standard 2024                  DATE 06-Sep-2025 TIME 22:57:29
 SUMMARY OF JOB INFORMATION:
 STEP  INC ATT SEVERE EQUIL TOTAL  TOTAL      STEP       INC OF       DOF    IF
               DISCON ITERS ITERS  TIME/    TIME/LPF    TIME/LPF    MONITOR RIKS
               ITERS               FREQ
   1     1   1     0     1     1  1.00       1.00       1.000     
   1     2   1     0     1     1  2.00       2.00       1.000     
   1     3   1     0     1     1  3.00       3.00       1.000     
   1     4   1     0     1     1  5.00       5.00       2.000     
   1     5   1     0     1     1  9.00       9.00       4.000     
   1     6   1     0     1     1  17.0       17.0       8.000     
   1     7   1     0     1     1  33.0       33.0       16.00     
   1     8   1     0     1     1  65.0       65.0       32.00     
   1     9   1     0     1     1  129.       129.       64.00     
   1    10   1     0     1     1  257.       257.       128.0     
   1    11   1     0     1     1  513.       513.       256.0     
   1    12   1     0     1     1  1.02e+03   1.02e+03   512.0     
   1    13   1     0     1     1  2.05e+03   2.05e+03   1024.     
   1    14   1     0     1     1  4.10e+03   4.10e+03   2048.     
   1    15   1     0     1     1  7.70e+03   7.70e+03   3600.     
   1    16   1     0     1     1  1.13e+04   1.13e+04   3600.     
   1    17   1     0     1     1  1.49e+04   1.49e+04   3600.     
   1    18   1     0     1     1  1.85e+04   1.85e+04   3600.     
   1    19   1     0     1     1  2.21e+04   2.21e+04   3600.     
   1    20   1     0     1     1  2.57e+04   2.57e+04   3600.     
   1    21   1     0     1     1  2.93e+04   2.93e+04   3600.     
   1    22   1     0     1     1  3.29e+04   3.29e+04   3600.     
   1    23   1     0     1     1  3.65e+04   3.65e+04   3600.     
   1    24   1     0     1     1  4.01e+04   4.01e+04   3600.     
   1    25   1     0     1     1  4.37e+04   4.37e+04   3600.     
   1    26   1     0     1     1  4.73e+04   4.73e+04   3600.     
   1    27   1     0     1     1  5.09e+04   5.09e+04   3600.     
   1    28   1     0     1     1  5.45e+04   5.45e+04   3600.     
   1    29   1     0     1     1  5.81e+04   5.81e+04   3600.     
   1    30   1     0     1     1  6.17e+04   6.17e+04   3600.     
   1    31   1     0     1     1  6.53e+04   6.53e+04   3600.     
   1    32   1     0     1     1  6.89e+04   6.89e+04   3600.     
   1    33   1     0     1     1  7.25e+04   7.25e+04   3600.     
   1    34   1     0     1     1  7.61e+04   7.61e+04   3600.     
   1    35   1     0     1     1  7.97e+04   7.97e+04   3600.     
   1    36   1     0     1     1  8.33e+04   8.33e+04   3600.     
   1    37   1     0     1     1  8.64e+04   8.64e+04   3103.     
                          
 THE ANALYSIS HAS COMPLETED SUCCESSFULLY
